# Mol2 file generated by Materials Studio
@<TRIPOS>MOLECULE     // molecular type name
structure             // convert source file name?
3 2 0 0 0             // n_atom, n_bond, (ignored), (ignored), (ignored)
SMALL
USER_CHARGES

// (local_atom_id), atom_name, x, y, z, (ignored), (ignored), (ignored), charge
@<TRIPOS>ATOM
1 Ow  0    0    0    O.3 0 **** -0.835
2 Hw -0.37 0.74 0.74 H   0 ****  0.4175
3 Hw 1.11  0    0    H   0 ****  0.4175

// (local_bond_id), i_atom, j_atom, (ignored)
@<TRIPOS>BOND
1 1 2 1
2 1 3 1
