# Mol2 file generated by manually
@<TRIPOS>MOLECULE     // molecular type name
structure             // convert source file name?
5 4 0 0 0             // n_atom, n_bond, (ignored), (ignored), (ignored)
SMALL
USER_CHARGES

//=================================================================================
//  definition of atom.
// (local_id), atom_name, x, y, z, (ignored), (ignored), (ignored), charge
//      atom_name  [-]                string
//      x, y, z    [angstrom]         relative position in molecule
//      charge     [electrom charge]  charge on each atom
//=================================================================================
@<TRIPOS>ATOM
  1 CH3  0        0        0    XX XX XX  0.0
  2 CH2  1.526    0        0    XX XX XX  0.0
  3 CH2  1.860    0.9426   0    XX XX XX  0.265    // add charge for charge neutral
  4 O    3.272    0.9426   0    XX XX XX -0.683
  5 H    3.572    1.840    0    XX XX XX  0.418

//=================================================================================
//  definition of bond.
// (bond_id), i_atom, j_atom, (ignored)
//      i_atom, j_atom  [integer] (using "local_id" in above atom definition.)
//=================================================================================
@<TRIPOS>BOND
  1 1 2 1
  2 2 3 1
  3 3 4 1
  4 4 5 1
